*
*
*
*                       LINUX           Mon Feb 12 20:38:47 2018
*
*
*
*  PROGRAM  advgen
*
*  Name           : advgen - Quantus QRC - (64-bit)
*  Version        : 17.1.2-s041
*  Build Date     : Wed Aug 23 16:57:50 PDT 2017
*
*  HSPICE LIBRARY
*
*!LENGTH_UNITS METERS
*
*
*

*
.SUBCKT inverter gnd! Input Output vdda!
*
*
*  caps2d version: 10
*
*
*       TRANSISTOR CARDS
*
*
MavD2_1	Output#1	Input#4	gnd!#4	gnd!#1
+ nmos1v#20ivpcell#20gpdk045	L=4.5e-08	W=1.2e-07
+ AD=1.68e-14	AS=1.68e-14	PD=5.2e-07	PS=5.2e-07
+ scc=2.9126e-05 scb=0.00507665 sca=9.31406 sb=1.4e-07 sa=1.4e-07
MavD10_1	Output#2	Input#1	vdda!#4	vdda!#1
+ pmos1v#20ivpcell#20gpdk045	L=4.5e-08	W=1.2e-07
+ AD=1.68e-14	AS=1.68e-14	PD=5.2e-07	PS=5.2e-07
+ scc=0.0164958 scb=0.0854804 sca=137.015 sb=1.4e-07 sa=1.4e-07
*
*
*       RESISTOR AND CAP/DIODE CARDS
*
Rk1	Input	Input#5	6.431E-03	$metal1_conn
+ $X=0.335 $Y=0.7335
Rk2	Input#6	Input#3	6.431E-03	$metal1_conn
+ $X=0.41 $Y=0.76
Rk3	Input#5	Input#6	3.422E-02	$metal1_conn
+ $X=0.3725 $Y=0.7425
Rk4	Output	Output#1	   75.0800	$metal1_conn
+ $X=0.595 $Y=0.5605
Rk5	Output	Output#2	   62.2947	$metal1_conn
+ $X=0.595 $Y=0.7965
Rk6	vdda!#1	vdda!	   75.0364	$metal1_conn	$X=0.788 $Y=1.4
Rk7	vdda!	vdda!#2	4.751E-02	$metal1_conn
+ $X=0.7545 $Y=1.4
Rk8	vdda!#2	vdda!#3	8.393E-02	$metal1_conn
+ $X=0.475 $Y=1.4
Rk9	vdda!#3	vdda!#1	   75.0839	$metal1_conn
+ $X=0.2325 $Y=1.4
Rk10	vdda!#3	vdda!#4	   62.2322	$metal1_conn
+ $X=0.39 $Y=1.175
Rk11	vdda!#1	vdda!#2	   75.0000	$metal1_conn
+ $X=0.63 $Y=1.4
Rk12	vdda!#1	vdda!#3	   75.0000	$metal1_conn
+ $X=0.365 $Y=1.4
Rk13	gnd!#1	gnd!	   62.0269	$metal1_conn	$X=0.829 $Y=0.1
Rk14	gnd!	gnd!#2	5.701E-02	$metal1_conn	$X=0.802 $Y=0.1
Rk15	gnd!#2	gnd!#3	8.393E-02	$metal1_conn	$X=0.475 $Y=0.1
Rk16	gnd!#3	gnd!#1	   62.0839	$metal1_conn	$X=0.2325 $Y=0.1
Rk17	gnd!#3	gnd!#4	   75.2378	$metal1_conn	$X=0.39 $Y=0.33
Rk18	gnd!#1	gnd!#2	   62.0000	$metal1_conn	$X=0.63 $Y=0.1
Rk19	gnd!#1	gnd!#3	   62.0000	$metal1_conn	$X=0.365 $Y=0.1
Rl1	Input#1	Input#2	   72.7910	$poly_conn
+ $X=0.4925 $Y=0.8855
Rl2	Input#2	Input#3	   50.1123	$poly_conn
+ $X=0.465 $Y=0.76
Rl3	Input#2	Input#4	   76.6372	$poly_conn
+ $X=0.4925 $Y=0.63
*
*       CAPACITOR CARDS
*
*
C1	Output	gnd!	3.2147E-17	$X=0.7055 $Y=0.3625
C2	Input#1	gnd!	3.03024E-17	$X=0.6545 $Y=0.537
C3	Input#4	gnd!	3.05263E-17	$X=0.656 $Y=0.2755
C4	Input#3	gnd!	1.36878E-17	$X=0.601 $Y=0.432
C5	vdda!#1	gnd!	1.85296E-16	$X=0.7985 $Y=0.099
C6	Output#2	gnd!	4.16349E-17	$X=0.746 $Y=0.3215
C7	vdda!#4	gnd!	2.46298E-17	$X=0.6845 $Y=0.366
C8	Output#1	gnd!	2.25876E-17	$X=0.7315 $Y=0.2255
C9	Input#2	gnd!	1.68949E-17	$X=0.646 $Y=0.4265
C10	Input#5	gnd!	2.15943E-17	$X=0.5245 $Y=0.4915
C11	Input#6	gnd!	3.46694E-17	$X=0.62 $Y=0.408
*
*
.ENDS inverter
*
